matpower-example/results/flow.csv
branch_n,from_bus_inj_p,from_bus_inj_q,to_bus_inj_p,to_bus_inj_q,loss_p,loss_q
1.0,101.0,102.0,7.84,-26.64,-7.84,-23.87
2.0,101.0,103.0,-0.58,14.64,0.73,-20.07
3.0,101.0,105.0,52.74,0.2,-52.18,-0.54
4.0,102.0,104.0,34.94,13.74,-34.5,-15.66
5.0,102.0,106.0,43.9,-4.73,-43.02,2.49
6.0,103.0,109.0,3.67,-15.57,-3.61,12.49
7.0,103.0,124.0,-184.41,-1.36,185.09,30.13
8.0,104.0,109.0,-39.5,0.66,39.91,-2.01
9.0,105.0,110.0,-18.82,-13.46,18.93,11.27
10.0,106.0,110.0,-92.98,-137.08,94.12,-124.56
11.0,107.0,108.0,168.71,19.74,-164.51,-5.57
12.0,107.0,203.0,61.29,4.77,-59.84,-3.92
13.0,108.0,109.0,-10.6,-5.6,10.65,1.1
14.0,108.0,110.0,4.11,-23.83,-3.91,19.79
15.0,109.0,111.0,-93.72,-30.2,93.91,38.4
16.0,109.0,112.0,-128.23,-17.37,128.57,31.53
17.0,110.0,111.0,-134.37,19.55,134.72,-5.08
18.0,110.0,112.0,-169.77,33.95,170.33,-10.42
19.0,111.0,113.0,-156.55,3.59,157.94,-3.03
20.0,111.0,114.0,-72.08,-36.91,72.38,29.96
21.0,112.0,113.0,-94.16,-23.44,94.69,17.14
22.0,112.0,123.0,-204.74,2.33,209.6,15.19
23.0,113.0,123.0,-179.7,8.09,183.05,-1.37
24.0,113.0,215.0,-117.94,-0.2,119.24,-7.07
25.0,114.0,116.0,-266.38,34.36,269.7,-4.1
26.0,115.0,116.0,14.6,-24.03,-14.58,20.21
27.0,115.0,121.0,-177.03,7.88,178.77,-4.95
28.0,115.0,121.0,-177.03,7.88,178.77,-4.95
29.0,115.0,124.0,187.47,36.27,-185.09,-30.13
30.0,116.0,117.0,-240.85,22.87,242.46,-14.96
31.0,116.0,119.0,40.73,21.02,-40.67,-25.89
32.0,117.0,118.0,-111.1,2.57,111.33,-4.29
33.0,117.0,122.0,-131.35,12.39,133.63,-19.66
34.0,118.0,121.0,-44.66,2.36,44.72,-7.95
35.0,118.0,121.0,-44.66,2.36,44.72,-7.95
36.0,119.0,120.0,-70.16,-5.56,70.39,-1.63
37.0,119.0,120.0,-70.16,-5.56,70.39,-1.63
38.0,120.0,123.0,-134.39,-11.37,134.89,9.99
39.0,120.0,123.0,-134.39,-11.37,134.89,9.99
40.0,121.0,122.0,-164.1,22.63,166.37,-21.11
41.0,123.0,217.0,7.57,-8.73,-7.56,-8.31
42.0,201.0,202.0,5.23,-26.53,-5.23,-24.29
43.0,201.0,203.0,-24.84,19.93,25.41,-23.83
44.0,201.0,205.0,53.61,6.34,-53.02,-6.57
45.0,202.0,204.0,31.49,19.07,-31.06,-21.05
46.0,202.0,206.0,44.74,-0.5,-43.83,-1.62
47.0,203.0,209.0,38.79,-12.08,-38.31,10.6
48.0,203.0,224.0,-184.37,2.83,185.04,25.53
49.0,204.0,209.0,-42.94,6.05,43.44,-7.03
50.0,205.0,210.0,-17.98,-7.43,18.06,5.14
51.0,206.0,210.0,-92.17,-131.96,93.29,-126.64
52.0,207.0,208.0,-15.0,13.0,15.07,-14.32
53.0,208.0,209.0,-101.32,0.22,106.08,13.59
54.0,208.0,210.0,-84.75,-20.9,88.24,29.75
55.0,209.0,211.0,-125.38,-35.41,125.73,49.95
56.0,209.0,212.0,-160.82,-17.75,161.35,40.18
57.0,210.0,211.0,-179.3,15.98,179.91,9.81
58.0,210.0,212.0,-215.29,35.77,216.19,2.14
59.0,211.0,213.0,-218.99,-13.72,221.72,24.72
60.0,211.0,214.0,-86.65,-46.05,87.08,40.21
61.0,212.0,213.0,-152.1,-49.66,153.55,50.6
62.0,212.0,223.0,-225.45,7.35,231.38,18.84
63.0,213.0,223.0,-175.27,24.93,178.46,-19.79
64.0,214.0,216.0,-281.08,46.08,284.78,-11.44
65.0,215.0,216.0,4.47,-24.75,-4.46,20.9
66.0,215.0,221.0,-184.05,11.21,185.93,-7.13
67.0,215.0,221.0,-184.05,11.21,185.93,-7.13
68.0,215.0,224.0,187.39,31.39,-185.04,-25.53
69.0,216.0,217.0,-248.08,24.54,249.78,-15.82
70.0,216.0,219.0,22.76,26.0,-22.72,-31.06
71.0,217.0,218.0,-110.83,10.66,111.05,-12.39
72.0,217.0,222.0,-131.39,13.47,133.67,-20.73
73.0,218.0,221.0,-44.53,2.35,44.58,-7.93
74.0,218.0,221.0,-44.53,2.35,44.58,-7.93
75.0,219.0,220.0,-79.14,-2.97,79.43,-3.73
76.0,219.0,220.0,-79.14,-2.97,79.43,-3.73
77.0,220.0,223.0,-143.43,-9.27,144.0,8.39
78.0,220.0,223.0,-143.43,-9.27,144.0,8.39
79.0,221.0,222.0,-164.06,22.62,166.33,-21.11
80.0,301.0,302.0,8.64,-27.26,-8.64,-23.56
81.0,301.0,303.0,-39.85,35.56,41.39,-35.64
82.0,301.0,305.0,27.21,18.67,-26.98,-20.28
83.0,302.0,304.0,11.14,30.5,-10.79,-32.75
84.0,302.0,306.0,26.5,7.36,-26.14,-11.52
85.0,303.0,309.0,26.13,-15.28,-25.86,13.1
86.0,303.0,324.0,-247.52,13.91,248.8,39.47
87.0,304.0,309.0,-63.21,17.75,64.37,-16.11
88.0,305.0,310.0,-44.02,6.28,44.45,-7.17
89.0,306.0,310.0,-109.86,-120.44,111.5,-131.32
90.0,307.0,308.0,-15.0,13.0,15.07,-14.27
91.0,308.0,309.0,-101.87,1.22,106.82,13.43
92.0,308.0,310.0,-84.2,-21.95,87.76,31.19
93.0,309.0,311.0,-143.49,-35.07,143.95,54.24
94.0,309.0,312.0,-176.84,-11.35,177.49,38.94
95.0,310.0,311.0,-202.58,20.55,203.38,13.11
96.0,310.0,312.0,-236.13,46.75,237.25,0.29
97.0,311.0,313.0,-199.55,-7.01,201.85,14.91
98.0,311.0,314.0,-147.78,-60.35,148.98,61.05
99.0,312.0,313.0,-134.86,-52.1,136.08,51.46
100.0,312.0,323.0,-279.89,12.86,289.3,41.86
101.0,313.0,323.0,-247.93,29.63,254.4,1.77
102.0,314.0,316.0,-342.98,66.58,348.55,-9.92
103.0,315.0,316.0,35.64,-23.15,-35.61,19.5
104.0,315.0,321.0,-207.93,13.1,210.33,-4.71
105.0,315.0,321.0,-207.93,13.1,210.33,-4.71
106.0,315.0,324.0,253.22,60.95,-248.8,-39.47
107.0,316.0,317.0,-286.69,29.89,288.98,-16.08
108.0,316.0,319.0,28.76,20.53,-28.72,-25.56
109.0,317.0,318.0,-150.01,2.45,150.42,-2.88
110.0,317.0,322.0,-138.97,13.63,141.52,-18.82
111.0,318.0,321.0,-50.17,3.06,50.24,-8.52
112.0,318.0,321.0,-50.17,3.06,50.24,-8.52
113.0,319.0,320.0,-76.14,-5.72,76.41,-1.13
114.0,319.0,320.0,-76.14,-5.72,76.41,-1.13
115.0,320.0,323.0,-140.41,-11.87,140.96,10.83
116.0,320.0,323.0,-140.41,-11.87,140.96,10.83
117.0,321.0,322.0,-166.15,23.13,168.48,-21.16
118.0,325.0,121.0,-115.62,8.45,117.11,-18.69
119.0,318.0,223.0,-28.08,-8.12,28.18,-15.15
120.0,323.0,325.0,-115.62,9.54,115.62,-8.45
